New LoadShape.storageCurve671 npts=24 interval=1
~ mult=[0 0 1.0 1.0 0.4 0 0 0 0 -0.25494333814333814 -0.7448754208754211 -0.8769405483405484 -0.9232406926406924 0 0 0 0 0 0.68355615549074 0.8251479491545304 1.0 1.0 1.0 1.0 ]
New Storage.storage_671 phases=3 Bus1=671.1.2.3 kv=4.16 kwrated=519.75 kwhrated=2079.0 dispmode=follow daily=storageCurve671


New LoadShape.storageCurve634a npts=24 interval=1
~ mult=[0 0 1.0 1.0 0.4 0 0 0 0 -0.05632152777777776 -0.32812499999999983 -0.3154062500000002 -0.11343541666666652 -0.17828289273299616 -0.1664983746735652 -0.12806356690313891 0.5944006345647119 0.5752090744454077 0.5761180629074881 0.6694733142685206 0.15706497132216116 0 0 0 ]
New Storage.storage_634a phases=1 Bus1=634.1 kv=0.277 kwrated=72.0 kwhrated=288.0 dispmode=follow daily=storageCurve634a


New LoadShape.storageCurve634b npts=24 interval=1
~ mult=[0 0 1.0 1.0 0.39999999999999997 0 0 0 0 -0.044165740740740915 -0.3155898148148147 -0.30287592592592605 -0.10558703703703713 -0.2094792447671108 -0.1905893441131323 -0.14808357276371112 0.5815371481440912 0.5629363649042974 0.5642143841942998 0.6432875999686609 0.2807658631135971 0 0 0 ]
New Storage.storage_634b phases=1 Bus1=634.2 kv=0.277 kwrated=53.99999999999999 kwhrated=215.99999999999997 dispmode=follow daily=storageCurve634b


New LoadShape.storageCurve634c npts=24 interval=1
~ mult=[0 0 1.0 1.0 0.39999999999999997 0 0 0 0 -0.044165740740740915 -0.3155898148148147 -0.30287592592592605 -0.10558703703703713 -0.2094792447671108 -0.1905893441131323 -0.14808357276371112 0.5815371481440912 0.5629363649042974 0.5642143841942998 0.6432875999686609 0.2807658631135971 0 0 0 ]
New Storage.storage_634c phases=1 Bus1=634.3 kv=0.277 kwrated=53.99999999999999 kwhrated=215.99999999999997 dispmode=follow daily=storageCurve634c


New LoadShape.storageCurve645 npts=24 interval=1
~ mult=[0 0 1.0 1.0 0.3999999999999997 0 0 0 0 -0.05772287581699359 -0.33126143790849694 -0.3180045751633992 -0.11420915032679715 -0.16916751153140325 -0.1592244661524157 -0.1232516161623181 0.5971304605425936 0.5778200659173306 0.5786673153057982 0.6750017064578366 0.11706371790008874 0 0 0 ]
New Storage.storage_645 phases=1 Bus1=645.2 kv=2.4 kwrated=76.49999999999999 kwhrated=305.99999999999994 dispmode=follow daily=storageCurve645


New LoadShape.storageCurve646 npts=24 interval=1
~ mult=[-5.684341886080802e-16 0 1.0000000000000002 1.0000000000000002 0.40000000000000013 0 0 0 0 -0.06611739130434785 -0.3402734299516909 -0.32104879227053135 -0.11886956521739109 -0.13125988497524702 -0.1315138340743448 -0.09790522978382626 0.6109069775366578 0.5910377614711599 0.5917824856965408 0.6202490304504001 0 0 0 0 ]
New Storage.storage_646 phases=1 Bus1=646.2.3 kv=4.16 kwrated=103.49999999999999 kwhrated=413.99999999999994 dispmode=follow daily=storageCurve646


New LoadShape.storageCurve692 npts=24 interval=1
~ mult=[0 0 1.0 1.0 0.3999999999999997 0 0 0 0 -0.09222614379084973 -0.40309673202614393 -0.42503202614379093 -0.29427124183006553 -0.3994718560764582 -0.3965656487654746 -0.3601799978691133 -0.10163069696178524 0.5778200659173306 0.5786673153057982 0.6750017064578366 1.0 1.0 1.0 0.1134595992463966 ]
New Storage.storage_692 phases=1 Bus1=692.3.1 kv=4.16 kwrated=76.49999999999999 kwhrated=305.99999999999994 dispmode=follow daily=storageCurve692


New LoadShape.storageCurve675a npts=24 interval=1
~ mult=[0 0 1.0000000000000002 1.0000000000000002 0.3999999999999996 0 0 0 0 -0.22305113402061877 -0.6585841924398629 -0.7833629324169524 -0.8613986025200459 -0.27360313860252006 0 0 0 0 0.6291094036771391 0.7668518238651075 1.0000000000000002 1.0000000000000002 1.0000000000000002 1.0000000000000002 ]
New Storage.storage_675a phases=1 Bus1=675.1 kv=2.4 kwrated=218.24999999999997 kwhrated=872.9999999999999 dispmode=follow daily=storageCurve675a


New LoadShape.storageCurve675b npts=24 interval=1
~ mult=[0 0 1.0000000000000002 1.0000000000000002 0.4000000000000001 0 0 0 0 -0.0271153594771242 -0.2915931372549021 -0.2859673202614377 -0.11027614379084952 -0.29998959616306253 -0.26390921464375283 -0.21057959151644298 0.5560118889894786 0.5387797049797483 0.540447514196874 0.591819109926215 0.7518025081228285 0 0 0 ]
New Storage.storage_675b phases=1 Bus1=675.2 kv=2.4 kwrated=30.599999999999998 kwhrated=122.39999999999999 dispmode=follow daily=storageCurve675b


New LoadShape.storageCurve675c npts=24 interval=1
~ mult=[0 0 1.0 1.0 0.3999999999999999 0 0 0 0 -0.15902375478927197 -0.5245214559386973 -0.5928812260536398 -0.5635501915708815 -0.6787362862446349 -0.2812870854028745 0 0 0.601478835098811 0.602487086117894 0.7233115139307824 1.0 1.0 1.0 0.6727225648525134 ]
New Storage.storage_675c phases=1 Bus1=675.3 kv=2.4 kwrated=130.5 kwhrated=522.0 dispmode=follow daily=storageCurve675c


New LoadShape.storageCurve611 npts=24 interval=1
~ mult=[0 0 1.0 1.0 0.3999999999999997 0 0 0 0 0 0 0 0 0 0 0 0 0 0 0 0 0 0 0 ]
New Storage.storage_611 phases=1 Bus1=611.3 kv=2.4 kwrated=76.49999999999999 kwhrated=305.99999999999994 dispmode=follow daily=storageCurve611


New LoadShape.storageCurve652 npts=24 interval=1
~ mult=[0 0 1.0000000000000002 1.0000000000000002 0.40000000000000013 0 0 0 0 0 0 0 0 0 0 0 0 0 0 0 0 0 0 0 ]
New Storage.storage_652 phases=1 Bus1=652.1 kv=2.4 kwrated=57.599999999999994 kwhrated=230.39999999999998 dispmode=follow daily=storageCurve652


New LoadShape.storageCurve670a npts=24 interval=1
~ mult=[0 0 0.9999999999999999 0.9999999999999999 0.4000000000000003 0 0 0 0 0 0 0 0 0 0 0 0 0 0 0 0 0 0 0 ]
New Storage.storage_670a phases=1 Bus1=670.1 kv=2.4 kwrated=7.6499999999999995 kwhrated=30.599999999999998 dispmode=follow daily=storageCurve670a


New LoadShape.storageCurve670b npts=24 interval=1
~ mult=[0.0 0 1.0000000000000002 1.0000000000000002 0.3999999999999992 0 0 0 0 0 0 0 0 0 0 0 0 0 0 0 0 0 0 0 ]
New Storage.storage_670b phases=1 Bus1=670.2 kv=2.4 kwrated=29.699999999999996 kwhrated=118.79999999999998 dispmode=follow daily=storageCurve670b


New LoadShape.storageCurve670c npts=24 interval=1
~ mult=[0 0 1.0 1.0 0.4 0 0 0 0 0 -0.18332383665717017 -0.1064928774928778 0.5796334283000958 0 0 0 0 0 0 0 0 0 0 0 ]
New Storage.storage_670c phases=1 Bus1=670.3 kv=2.4 kwrated=52.64999999999999 kwhrated=210.59999999999997 dispmode=follow daily=storageCurve670c


