New LoadShape.storageCurve671 npts=24 interval=1
~ mult=[0 0 1.0 1.0 0.4 0 0 0 0 -0.25494333814333814 -0.7448754208754211 -0.8769405483405484 -0.9232406926406924 0 0 0 0 0 0.6812617336710234 0.824778045047766 1.0 1.0 1.0 1.0 ]
New Storage.storage_671 phases=3 Bus1=671.1.2.3 kv=4.16 kwrated=519.75 kwhrated=2079.0 dispmode=follow daily=storageCurve671


New LoadShape.storageCurve634a npts=24 interval=1
~ mult=[0 0 1.0 1.0 0.4 0 0 0 0 -0.05632152777777776 -0.32812499999999983 -0.3154062500000002 -0.11343541666666652 -0.1793172724663387 -0.14041682573617578 -0.164356915744886 0.6219839097390376 0.5805952882575992 0.5756350330730132 0.6690073857984461 0.1475367999155935 0 0 0 ]
New Storage.storage_634a phases=1 Bus1=634.1 kv=0.277 kwrated=72.0 kwhrated=288.0 dispmode=follow daily=storageCurve634a


New LoadShape.storageCurve634b npts=24 interval=1
~ mult=[0 0 1.0 1.0 0.39999999999999997 0 0 0 0 -0.044165740740740915 -0.3155898148148147 -0.30287592592592605 -0.10558703703703713 -0.2104283512579971 -0.14921996361319742 -0.1994154102337765 0.6187591357159307 0.5701613637746967 0.5635324548068692 0.6425019981148825 0.2596095348346018 0 0 0 ]
New Storage.storage_634b phases=1 Bus1=634.2 kv=0.277 kwrated=53.99999999999999 kwhrated=215.99999999999997 dispmode=follow daily=storageCurve634b


New LoadShape.storageCurve634c npts=24 interval=1
~ mult=[0 0 1.0 1.0 0.39999999999999997 0 0 0 0 -0.044165740740740915 -0.3155898148148147 -0.30287592592592605 -0.10558703703703713 -0.2104283512579971 -0.14921996361319742 -0.1994154102337765 0.6187591357159307 0.5701613637746967 0.5635324548068692 0.6425019981148825 0.2596095348346018 0 0 0 ]
New Storage.storage_634c phases=1 Bus1=634.3 kv=0.277 kwrated=53.99999999999999 kwhrated=215.99999999999997 dispmode=follow daily=storageCurve634c


New LoadShape.storageCurve645 npts=24 interval=1
~ mult=[0 0 1.0 1.0 0.3999999999999997 0 0 0 0 -0.05772287581699359 -0.33126143790849694 -0.3180045751633992 -0.11420915032679715 -0.17024108899940585 -0.13616190730841737 -0.15619926245685606 0.6228448323560634 0.5828191017495712 0.578202878593991 0.674587871592513 0.10914591166859401 0 0 0 ]
New Storage.storage_645 phases=1 Bus1=645.2 kv=2.4 kwrated=76.49999999999999 kwhrated=305.99999999999994 dispmode=follow daily=storageCurve645


New LoadShape.storageCurve646 npts=24 interval=1
~ mult=[-5.684341886080802e-16 0 1.0000000000000002 1.0000000000000002 0.40000000000000013 0 0 0 0 -0.06611739130434785 -0.3402734299516909 -0.32104879227053135 -0.11886956521739109 -0.13258744744829812 -0.12236931921532658 -0.11342499215636621 0.6281325277733855 0.5941939077914502 0.5912876161450706 0.6157678234179969 0 0 0 0 ]
New Storage.storage_646 phases=1 Bus1=646.2.3 kv=4.16 kwrated=103.49999999999999 kwhrated=413.99999999999994 dispmode=follow daily=storageCurve646


New LoadShape.storageCurve692 npts=24 interval=1
~ mult=[0 0 1.0 1.0 0.3999999999999997 0 0 0 0 -0.09222614379084973 -0.40309673202614393 -0.42503202614379093 -0.29427124183006553 -0.4001906752072756 -0.3682174195969711 -0.3989526236005821 -0.08023050232694232 0.5828191017495712 0.578202878593991 0.674587871592513 1.0 1.0 1.0 0.08882487710916603 ]
New Storage.storage_692 phases=1 Bus1=692.3.1 kv=4.16 kwrated=76.49999999999999 kwhrated=305.99999999999994 dispmode=follow daily=storageCurve692


New LoadShape.storageCurve675a npts=24 interval=1
~ mult=[0 0 1.0000000000000002 1.0000000000000002 0.3999999999999996 0 0 0 0 -0.22305113402061877 -0.6585841924398629 -0.7833629324169524 -0.8613986025200459 -0.27360313860252006 0 0 0 0 0.6278331746210919 0.7666112802937671 1.0000000000000002 1.0000000000000002 1.0000000000000002 1.0000000000000002 ]
New Storage.storage_675a phases=1 Bus1=675.1 kv=2.4 kwrated=218.24999999999997 kwhrated=872.9999999999999 dispmode=follow daily=storageCurve675a


New LoadShape.storageCurve675b npts=24 interval=1
~ mult=[0 0 1.0000000000000002 1.0000000000000002 0.4000000000000001 0 0 0 0 -0.0271153594771242 -0.2915931372549021 -0.2859673202614377 -0.11027614379084952 -0.30136854962232945 -0.18668110715905242 -0.2841218690915943 0.6160765098873662 0.54924836359001 0.5389436678433729 0.5901282367948762 0.6798501951989536 0 0 0 ]
New Storage.storage_675b phases=1 Bus1=675.2 kv=2.4 kwrated=30.599999999999998 kwhrated=122.39999999999999 dispmode=follow daily=storageCurve675b


New LoadShape.storageCurve675c npts=24 interval=1
~ mult=[0 0 1.0 1.0 0.3999999999999999 0 0 0 0 -0.15902375478927197 -0.5245214559386973 -0.5928812260536398 -0.5635501915708815 -0.67925438810826 -0.28076898353924945 0 0 0.6033971264425908 0.601839157509225 0.7231319996998453 1.0 1.0 1.0 0.671631716348339 ]
New Storage.storage_675c phases=1 Bus1=675.3 kv=2.4 kwrated=130.5 kwhrated=522.0 dispmode=follow daily=storageCurve675c


New LoadShape.storageCurve611 npts=24 interval=1
~ mult=[0 0 1.0 1.0 0.3999999999999997 0 0 0 0 0 0 0 0 0 0 0 0 0 0 0 0 0 0 0 ]
New Storage.storage_611 phases=1 Bus1=611.3 kv=2.4 kwrated=76.49999999999999 kwhrated=305.99999999999994 dispmode=follow daily=storageCurve611


New LoadShape.storageCurve652 npts=24 interval=1
~ mult=[0 0 1.0000000000000002 1.0000000000000002 0.40000000000000013 0 0 0 0 0 0 0 0 0 0 0 0 0 0 0 0 0 0 0 ]
New Storage.storage_652 phases=1 Bus1=652.1 kv=2.4 kwrated=57.599999999999994 kwhrated=230.39999999999998 dispmode=follow daily=storageCurve652


New LoadShape.storageCurve670a npts=24 interval=1
~ mult=[0 0 0.9999999999999999 0.9999999999999999 0.4000000000000003 0 0 0 0 0 0 0 0 0 0 0 0 0 0 0 0 0 0 0 ]
New Storage.storage_670a phases=1 Bus1=670.1 kv=2.4 kwrated=7.6499999999999995 kwhrated=30.599999999999998 dispmode=follow daily=storageCurve670a


New LoadShape.storageCurve670b npts=24 interval=1
~ mult=[0.0 0 1.0000000000000002 1.0000000000000002 0.3999999999999992 0 0 0 0 0 0 0 0 0 0 0 0 0 0 0 0 0 0 0 ]
New Storage.storage_670b phases=1 Bus1=670.2 kv=2.4 kwrated=29.699999999999996 kwhrated=118.79999999999998 dispmode=follow daily=storageCurve670b


New LoadShape.storageCurve670c npts=24 interval=1
~ mult=[0 0 1.0 1.0 0.4 0 0 0 0 0 -0.18332383665717017 -0.1064928774928778 0.5796334283000958 0 0 0 0 0 0 0 0 0 0 0 ]
New Storage.storage_670c phases=1 Bus1=670.3 kv=2.4 kwrated=52.64999999999999 kwhrated=210.59999999999997 dispmode=follow daily=storageCurve670c


